data/ENWL/enwl_4wire/network_22/Feeder_4/LineCode.txt
! Subset of available target linecodes, which are closest to the original ones in terms of positive sequence impedance
! --------------------------------------------------------------------------------------------------------------------------------------------------------------------------------------------------------------------------------------------------------------------------------------------------------------------------------------------
! original name: BS 5467 1997 table 10 70 (50 Hz)
New LineCode.LC4 nphases=4 Units=km
~ Rmatrix=(0.5643923515458874 0.2945514767230663 0.2933874767230663 0.2945233515458874 | 0.2945514767230663 0.5644766019371148 0.29460460193711474 0.2933894767230663 | 0.2933874767230663 0.29460460193711474 0.5644996019371148 0.2945764767230663 | 0.2945233515458874 0.2933894767230663 0.2945764767230663 0.5644203515458874)
~ Xmatrix=(0.5883153159279138 0.5209253296470171 0.4969653296470171 0.5208813159279138 | 0.5209253296470171 0.5884633433307894 0.5210123433307894 0.49696632964701715 | 0.4969653296470171 0.5210123433307894 0.5885053433307894 0.5209683296470171 | 0.5208813159279138 0.49696632964701715 0.5209683296470171 0.5883693159279137)
~ Cmatrix=(0.0 0.0 0.0 0.0 | 0.0 0.0 0.0 0.0 | 0.0 0.0 0.0 0.0 | 0.0 0.0 0.0 0.0)

! original name: BS 6480 1988 table 17 Cu 120 (50 Hz)
New LineCode.LC5 nphases=4 Units=km
~ Rmatrix=(0.75589946100395 0.59603846100395 0.59085046100395 0.59604046100395 | 0.59603846100395 0.75590046100395 0.5960414610039501 0.59084946100395 | 0.59085046100395 0.5960414610039501 0.75590646100395 0.59604446100395 | 0.59604046100395 0.59084946100395 0.59604446100395 0.75590446100395)
~ Xmatrix=(0.39846989035248354 0.33204889035248353 0.30294389035248354 0.33204889035248353 | 0.33204889035248353 0.3984688903524835 0.33204889035248353 0.30294389035248354 | 0.30294389035248354 0.33204889035248353 0.3984688903524835 0.33204889035248353 | 0.33204889035248353 0.30294389035248354 0.33204889035248353 0.3984688903524835)
~ Cmatrix=(0.0 0.0 0.0 0.0 | 0.0 0.0 0.0 0.0 | 0.0 0.0 0.0 0.0 | 0.0 0.0 0.0 0.0)

! original name: BS 6480 1988 table 17 Cu 16 (50 Hz)
New LineCode.LC6 nphases=4 Units=km
~ Rmatrix=(2.275110332819354 1.1225363328193543 1.1217103328193543 1.1225373328193542 | 1.1225363328193543 2.275110332819354 1.1225363328193543 1.1217103328193543 | 1.1217103328193543 1.1225363328193543 2.275111332819354 1.1225373328193542 | 1.1225373328193542 1.1217103328193543 1.1225373328193542 2.275111332819354)
~ Xmatrix=(1.046570816522671 0.962102816522671 0.932128816522671 0.9621038165226711 | 0.962102816522671 1.046571816522671 0.962102816522671 0.932128816522671 | 0.932128816522671 0.962102816522671 1.046573816522671 0.962102816522671 | 0.9621038165226711 0.932128816522671 0.962102816522671 1.046576816522671)
~ Cmatrix=(0.0 0.0 0.0 0.0 | 0.0 0.0 0.0 0.0 | 0.0 0.0 0.0 0.0 | 0.0 0.0 0.0 0.0)
! --------------------------------------------------------------------------------------------------------------------------------------------------------------------------------------------------------------------------------------------------------------------------------------------------------------------------------------------